8
Energy =
C     0.0000000    0.0000000    0.7612419 
C     0.0000000    0.0000000   -0.7612419 
H    -0.8801578    0.5081593    1.1576296 
H     0.0000000   -1.0163187    1.1576296 
H     0.8801578    0.5081593    1.1576296 
H     0.0000000    1.0163187   -1.1576296 
H     0.8801578   -0.5081593   -1.1576296 
H    -0.8801578   -0.5081593   -1.1576296 
