39
-65.29143583978 , 
  C  2.77947656 -0.04954891  0.19819612
  C  2.09887010 -0.93318569 -0.71279063
  C  0.78657933 -1.19312934 -0.52514142
  C -0.00142794 -0.71336403  0.59152592
  C  0.75809001  0.19447876  1.45958951
  C  2.06725995  0.48253758  1.27071359
  H  2.64963569 -1.31513871 -1.56067622
  H  0.27925600 -1.87410551 -1.24862644
  H  0.20423999  0.65966433  2.25300565
  H  2.55675824  1.15476029  1.91388666
  C -0.39865933 -2.02059629  1.50655361
  H  0.41080137 -2.74141923  1.37193246
  H -0.40594369 -1.70149868  2.55312044
  N -1.60793315 -2.65566656  1.14567629
  H -2.37361212 -2.41534102  1.76796616
  S -2.17549801 -2.08699265 -0.36187514
  O -1.57907580 -2.86635336 -1.41762941
  O -3.63777987 -2.12478727 -0.27425452
  C -1.31408331 -0.05800889  0.12357059
  C -1.36295931  0.62439967 -1.09031205
  C -2.28099234  0.32473924  1.10443065
  C -2.35102731  1.51616549 -1.36958687
  H -0.59125434  0.39882931 -1.81595874
  C -3.26406188  1.24361704  0.82496604
  H -2.26632496 -0.10247581  2.09002119
  C -3.33424104  1.84133484 -0.43224994
  H -2.34027845  1.98801627 -2.38028668
  H -3.98090546  1.50947221  1.56289504
  C -4.40871671  2.79810360 -0.77663829
  H -5.31839107  2.25174706 -1.05526164
  H -4.68358646  3.39023856  0.07253607
  H -4.14768813  3.42805289 -1.62563134
  C  4.18048258  0.27254095  0.04136047
  C  6.12492825 -0.03018605 -1.22410200
  H  6.29140199  1.06367207 -1.34482135
  H  6.74627429 -0.33531969 -0.34107277
  H  6.42655261 -0.57994422 -2.13500383
  O  4.80165422  1.02749506  0.82098632
  O  4.77257640 -0.31434045 -1.03422578