22
-32.96471653023 , 
  C  3.01157720 -1.12498487 -0.79153038
  C  2.07953642  0.04176123 -0.51288644
  N  1.15444773 -0.26515894  0.42752342
  C -0.02465386  0.48131735  0.84426354
  C -1.23141857 -0.39785884  0.44928214
  N -2.31437973  0.23436883 -0.02849563
  C -3.50899991 -0.46932141 -0.43020610
  O  2.19885099  1.11988405 -1.05234565
  C -0.05961026  1.91920538  0.35051345
  O -1.16821437 -1.60450623  0.59299082
  H  2.44853915 -1.96070317 -1.20130134
  H  3.49711632 -1.44605248  0.12690957
  H  3.76589623 -0.81426261 -1.50836312
  H  1.07278853 -1.24023021  0.68848812
  H -0.01660043  0.48874894  1.94759631
  H -2.29133868  1.23063108 -0.16808671
  H -3.69766625 -0.33226211 -1.49639937
  H -4.37097490 -0.11249288  0.13583138
  H -3.35249781 -1.52684123 -0.22448163
  H -0.87172132  2.46177967  0.83196883
  H -0.16098664  1.96610359 -0.73019865
  H  0.87499514  2.40822584  0.61009742