9
       -258.42817037, 
  C  0.40540088  0.73518712  0.00001513
  C  0.29808525 -0.80033813 -0.00001841
  O -1.13322146 -1.06017002 -0.00002673
  N -1.80716864  0.17692519  0.00000721
  N -1.04089930  1.17961264  0.00003138
  H  0.89667608  1.13641851  0.88660995
  H  0.89666877  1.13645650 -0.88656662
  H  0.74222637 -1.25206431  0.89075012
  H  0.74223206 -1.25202750 -0.89080201