  28
  -594.215372923911     
 C      2.5118997      1.6250148      0.0000000
 C      2.7130094      0.9578537     -1.2082918
 C      3.1177821     -0.3767436     -1.2083647
 C      3.3213848     -1.0437307      0.0000000
 C      3.1177821     -0.3767436      1.2083647
 C      2.7130094      0.9578537      1.2082918
 H      2.2024038      2.6611358      0.0000000
 H      2.5511760      1.4736908     -2.1445900
 H      3.2702999     -0.8951406     -2.1448379
 H      3.6368139     -2.0781521      0.0000000
 H      3.2702999     -0.8951406      2.1448379
 H      2.5511760      1.4736908      2.1445900
 H      0.8065245     -0.4358866      0.0000000
 N     -0.1442408     -0.7686927      0.0000000
 C     -0.5161122     -2.0893220      0.0000000
 C     -1.8898755     -2.1814495      0.0000000
 C     -2.3932317     -0.8470830      0.0000000
 C     -1.2640653      0.0195887      0.0000000
 C     -1.3896004      1.4117668      0.0000000
 C     -2.6726501      1.9366450      0.0000000
 C     -3.8054511      1.0974790      0.0000000
 C     -3.6798167     -0.2817209      0.0000000
 H      0.2310024     -2.8653173      0.0000000
 H     -2.4585759     -3.0956052      0.0000000
 H     -0.5188733      2.0539520      0.0000000
 H     -2.8077570      3.0097859      0.0000000
 H     -4.7905991      1.5439372      0.0000000
 H     -4.5580187     -0.9142916      0.0000000
  28
  -594.215566823884     
 C      2.4560939      1.6210291      0.0000110
 C      2.6643392      0.9551018     -1.2096360
 C      3.0806790     -0.3774718     -1.2095937
 C      3.2894920     -1.0437569     -0.0000129
 C      3.0806903     -0.3774897      1.2095798
 C      2.6643538      0.9550849      1.2096461
 H      2.1402393      2.6562248      0.0000199
 H      2.5001211      1.4707339     -2.1465860
 H      3.2400209     -0.8941443     -2.1468668
 H      3.6167370     -2.0754171     -0.0000203
 H      3.2400450     -0.8941758      2.1468434
 H      2.5001427      1.4707025      2.1466054
 H      0.8379282     -0.4313715      0.0000023
 N     -0.1111113     -0.7664046      0.0000036
 C     -0.4806192     -2.0905117      0.0000014
 C     -1.8546980     -2.1830309      0.0000022
 C     -2.3609350     -0.8475992      0.0000022
 C     -1.2337477      0.0223599      0.0000041
 C     -1.3589970      1.4165799      0.0000038
 C     -2.6441581      1.9396133     -0.0000001
 C     -3.7774620      1.0983091     -0.0000019
 C     -3.6493815     -0.2823447     -0.0000002
 H      0.2686833     -2.8652251     -0.0000013
 H     -2.4240468     -3.0977019      0.0000012
 H     -0.4866169      2.0579711      0.0000056
 H     -2.7808507      3.0134621     -0.0000042
 H     -4.7639687      1.5439002     -0.0000066
 H     -4.5272765     -0.9170532     -0.0000018
  28
  -594.215594162463     
 C      2.4692571      1.6229394      0.0000068
 C      2.6760138      0.9558372     -1.2109989
 C      3.0907729     -0.3785439     -1.2108581
 C      3.2992882     -1.0456074     -0.0000078
 C      3.0907808     -0.3785541      1.2108497
 C      2.6760212      0.9558266      1.2110054
 H      2.1582957      2.6602853      0.0000122
 H      2.5141137      1.4724565     -2.1484403
 H      3.2518726     -0.8950740     -2.1485483
 H      3.6273234     -2.0776231     -0.0000121
 H      3.2518856     -0.8950940      2.1485338
 H      2.5141303      1.4724384      2.1484525
 H      0.8305402     -0.4328030      0.0000018
 N     -0.1185477     -0.7674689      0.0000025
 C     -0.4896396     -2.0931304      0.0000024
 C     -1.8639895     -2.1849227      0.0000010
 C     -2.3705446     -0.8483363      0.0000009
 C     -1.2431028      0.0220427      0.0000015
 C     -1.3671218      1.4179985      0.0000003
 C     -2.6530838      1.9414338     -0.0000018
 C     -3.7877038      1.0997670     -0.0000026
 C     -3.6599686     -0.2820443     -0.0000012
 H      0.2602087     -2.8678854      0.0000033
 H     -2.4352056     -3.0990294     -0.0000001
 H     -0.4929699      2.0575480      0.0000011
 H     -2.7898359      3.0159276     -0.0000005
 H     -4.7745692      1.5460250     -0.0000020
 H     -4.5385253     -0.9170348     -0.0000015
  28
  -594.215596826583     
 C      2.4649687      1.6226307      0.0000081
 C      2.6722339      0.9556795     -1.2110365
 C      3.0881388     -0.3783946     -1.2109183
 C      3.2975073     -1.0452274     -0.0000095
 C      3.0881469     -0.3784076      1.2109081
 C      2.6722423      0.9556664      1.2110440
 H      2.1501521      2.6586769      0.0000147
 H      2.5082235      1.4715942     -2.1483678
 H      3.2472258     -0.8955280     -2.1484817
 H      3.6244505     -2.0774599     -0.0000156
 H      3.2472403     -0.8955518      2.1484644
 H      2.5082374      1.4715706      2.1483821
 H      0.8343212     -0.4321918      0.0000022
 N     -0.1151701     -0.7666341      0.0000027
 C     -0.4864388     -2.0920159      0.0000020
 C     -1.8605759     -2.1843818      0.0000011
 C     -2.3672724     -0.8480586      0.0000010
 C     -1.2399005      0.0222462      0.0000019
 C     -1.3643202      1.4180456      0.0000013
 C     -2.6501636      1.9413575     -0.0000003
 C     -3.7844285      1.0993496     -0.0000013
 C     -3.6568317     -0.2822646     -0.0000006
 H      0.2635388     -2.8665309      0.0000022
 H     -2.4316053     -3.0984379      0.0000005
 H     -0.4904083      2.0576503      0.0000021
 H     -2.7873178      3.0156820     -0.0000019
 H     -4.7712169      1.5454695     -0.0000037
 H     -4.5352815     -0.9171599     -0.0000013
  28
  -594.215597039228     
 C      2.4647373      1.6223665      0.0000080
 C      2.6719944      0.9554081     -1.2110615
 C      3.0879359     -0.3786804     -1.2109568
 C      3.2969894     -1.0456156     -0.0000093
 C      3.0879425     -0.3786938      1.2109468
 C      2.6720011      0.9553946      1.2110688
 H      2.1511006      2.6587270      0.0000146
 H      2.5081543      1.4713730     -2.1483523
 H      3.2477062     -0.8956088     -2.1484732
 H      3.6244315     -2.0776483     -0.0000158
 H      3.2477182     -0.8956329      2.1484564
 H      2.5081666      1.4713491      2.1483664
 H      0.8344559     -0.4320430      0.0000023
 N     -0.1152119     -0.7662874      0.0000026
 C     -0.4863812     -2.0916212      0.0000021
 C     -1.8604063     -2.1841218      0.0000012
 C     -2.3671736     -0.8478788      0.0000007
 C     -1.2399448      0.0224790      0.0000016
 C     -1.3645170      1.4182194      0.0000009
 C     -2.6503236      1.9414229     -0.0000009
 C     -3.7844346      1.0992621     -0.0000016
 C     -3.6567801     -0.2822570     -0.0000008
 H      0.2636594     -2.8660380      0.0000023
 H     -2.4313560     -3.0981636      0.0000009
 H     -0.4906919      2.0578486      0.0000014
 H     -2.7877187      3.0156670     -0.0000012
 H     -4.7712089      1.5453063     -0.0000023
 H     -4.5351481     -0.9171586     -0.0000013
