36
 energy: -52.351973947523 gnorm: 0.000160610758 xtb: 6.2.2 (655bc02)
C           0.55228184247397   -0.61837274391174    3.50745987585278
C           1.33918566963926   -0.67561355815872    2.40098505499637
C           1.66968564806526    0.37399950247406    1.50562227440179
C          -0.13068844813530    0.50447851746174    4.04153111337411
C           1.23183210341416    1.65786333228522    1.48300472460860
C          -0.23637319980459    1.76364548884390    3.54803264899676
C           0.28677683297440    2.32289912155949    2.33414212165019
H           0.42703990881691   -1.53732833201007    4.06688388936895
H           1.78402533013320   -1.63427118334266    2.16492199770704
H           2.36527025998316    0.09691186153905    0.72270848860939
H          -0.64791036366148    0.31604646959117    4.97425760711142
H           1.60698564736767    2.27975102732959    0.67810921853521
H          -0.84155562500622    2.45606064405911    4.12203162509031
C          -0.10001069841759    3.60894331345117    1.99294942480276
C           0.36979765747389    4.26902102753899    0.84461953078200
C          -0.99854629437760    4.36649790559729    2.76359779916893
N          -1.73170101675544    5.00006577613802    3.38151904037538
N           0.74376773417639    4.82387498860875   -0.08971532004922
C           2.00359203789352    2.97461563142229    4.96454788272275
C           2.93628831946840    2.09867985853999    4.26356644022818
C           3.35337858394118    2.85119179499183    3.08486643636091
C           2.76937626281602    4.06783073885206    3.12379466682831
H           1.33342008163713    5.00047550835359    4.55854267094133
H           1.49949157879141    2.73622337834737    5.88157835925467
H           4.05269574693891    2.50368491946368    2.34868946399621
H           2.88715753372197    4.86270561322108    2.40931074744566
C           3.37649889126749    0.88167204729355    4.64672302660291
C           2.95558610003210    0.22250339574043    5.91878479705367
H           3.82791246219634    0.07794402238498    6.55731924946404
H           2.22076658624360    0.80529009925895    6.46249371845575
H           2.54005554482476   -0.76304695265550    5.70986088498957
C           4.39023909741238    0.11391760890291    3.85839340467421
H           4.33912752529639    0.34550671897745    2.79917121855090
H           5.39163038980183    0.36740883909462    4.21017781297743
H           4.25275511266745   -0.95657675504032    3.99634215466260
C           1.92616515668890    4.14350037381227    4.29317594943234
