36
 energy: -52.399604569219 gnorm: 0.000330687727 xtb: 6.2.2 (655bc02)
C           0.07548589478768   -0.04849772718695    3.15656442647527
C           0.94105229027328   -0.10542129942512    1.99798587796097
C           1.66520793426230    0.84965680996339    1.40792486352615
C          -0.24208103154159    0.97502215528214    3.95404106290096
C           1.78244324738759    2.28593765297089    1.81252220363527
C           0.23981990866621    2.38891233359604    3.85918969116683
C           0.51600011359646    2.76875399605389    2.44109060853378
H          -0.37256757889884   -1.00385245392157    3.40202393636086
H           1.00219941304147   -1.09341726031210    1.55815794877924
H           2.26433408793586    0.58189751786207    0.54838080079554
H          -0.90239257348298    0.78897697697473    4.78973345055806
H           2.00026842208391    2.88193182480093    0.91881796724513
H          -0.53236418158595    3.04771449051001    4.27273964129744
C          -0.36692771699993    3.51518062872609    1.73766347834733
C          -0.15048263289423    3.89018090523273    0.39052946457820
C          -1.58243620484869    3.98544651918009    2.28872870177590
N          -2.56665525453256    4.37419746317374    2.72934814449601
N           0.01962718502163    4.20365961864649   -0.69882180565651
C           1.55101233064435    2.57511426378733    4.69999146990046
C           2.58940761423663    1.69143882235721    4.06285780843432
C           2.95955093157046    2.47563228236145    2.83200550774862
C           2.88931274242008    3.88918573887343    3.34068894876891
H           1.80139893559546    4.82192771325350    4.95072827105663
H           1.34098636896352    2.39351828428511    5.75198289286951
H           3.90504998119356    2.21340370874759    2.36223042265722
H           3.38489381562176    4.70965386064083    2.85306546570704
C           3.03773333452159    0.50574076512331    4.45713800033748
C           2.58556735896119   -0.17383674716446    5.71576162115294
H           3.45147066665724   -0.51789427577621    6.27978726052726
H           1.99325466986025    0.47718870071362    6.34983277405976
H           1.98331503707895   -1.04698249135833    5.46608615641310
C           4.07322573457382   -0.27192866091555    3.69701737730005
H           4.16622072188851    0.06217533339666    2.66907693247802
H           5.04376480742729   -0.17372129185741    4.18456282724268
H           3.80944123561368   -1.32772941640813    3.69333590245717
C           2.09086239089982    3.94583325781171    4.39822989810950
